<?xml version="1.0" encoding="UTF-8"?>

<!-- generated on 2024-03-06 18:56:55 by Eclipse SUMO sumo Version 1.19.0
-->

<configuration xmlns:xsi="http://www.w3.org/2001/XMLSchema-instance" xsi:noNamespaceSchemaLocation="http://sumo.dlr.de/xsd/sumoConfiguration.xsd">

    <input>
        <net-file value="right35.net.xml"/>
        <route-files value="right35.rou.xml"/>
    </input>

</configuration>
